*Heading
** Job name: Stretch-EvansSkalak-Test-1 Model name: Model-2
** Generated by: Abaqus/CAE 2025
*Preprint, echo=NO, model=NO, history=NO, contact=NO
**
** PARTS
**
*Part, name=Part-Cylinder
*Node
      1,           1.,           0.
      2,           1.,  0.100000001
      3,           1.,  0.200000003
      4,           1.,  0.300000012
      5,           1.,  0.400000006
      6,           1.,          0.5
      7,           1.,  0.600000024
      8,           1.,  0.699999988
      9,           1.,  0.800000012
     10,           1.,  0.899999976
     11,           1.,           1.
*Element, type=SAX1
 1,  1,  2
 2,  2,  3
 3,  3,  4
 4,  4,  5
 5,  5,  6
 6,  6,  7
 7,  7,  8
 8,  8,  9
 9,  9, 10
10, 10, 11
*Nset, nset=Set-1, generate
  1,  11,   1
*Elset, elset=Set-1, generate
  1,  10,   1
** Section: Section-Cylinder
*Shell Section, elset=Set-1, material=Material-Cylinder, section integration=GAUSS
0.01, 3
*End Part
**  
**
** ASSEMBLY
**
*Assembly, name=Assembly
**  
*Instance, name=Part-Cylinder-1, part=Part-Cylinder
*End Instance
**  
*Nset, nset=Set-Anchor, instance=Part-Cylinder-1
 1,
*Nset, nset=Set-Top, instance=Part-Cylinder-1
 11,
*End Assembly
*Amplitude, name=Amp-1, definition=SMOOTH STEP
             0.,              0.,             10.,              1.,            100.,              1.
** 
** MATERIALS
** 
*Material, name=Material-Cylinder
*Damping, alpha=100.
*Density
10.,
*Depvar
      4,
*User Material, constants=2
500.,10000.
** ----------------------------------------------------------------
** 
** STEP: Step-1
** 
*Step, name=Step-1, nlgeom=YES
*Dynamic, Explicit, direct user control
0.0005, 100.
*Bulk Viscosity
0.06, 1.2
** 
** BOUNDARY CONDITIONS
** 
** Name: BC-1 Type: Symmetry/Antisymmetry/Encastre
*Boundary
Set-Anchor, YSYMM
** 
** LOADS
** 
** Name: Load-1   Type: Concentrated force
*Cload, amplitude=Amp-1
Set-Top, 2, 0.01
** 
** OUTPUT REQUESTS
** 
*Restart, write, number interval=1, time marks=NO
** 
** FIELD OUTPUT: F-Output-1
** 
*Output, field, variable=PRESELECT
** 
** HISTORY OUTPUT: H-Output-1
** 
*Output, history, variable=PRESELECT
*End Step
